
---------- Begin Simulation Statistics ----------
final_tick                                   19894000                       # Number of ticks from beginning of simulation (restored from checkpoints and never reset)
host_inst_rate                                  16826                       # Simulator instruction rate (inst/s)
host_mem_usage                                 654324                       # Number of bytes of host memory used
host_op_rate                                    19741                       # Simulator op (including micro ops) rate (op/s)
host_seconds                                     0.27                       # Real time elapsed on the host
host_tick_rate                               72841474                       # Simulator tick rate (ticks/s)
sim_freq                                 1000000000000                       # Frequency of simulated ticks
sim_insts                                        4592                       # Number of instructions simulated
sim_ops                                          5391                       # Number of ops (including micro ops) simulated
sim_seconds                                  0.000020                       # Number of seconds simulated
sim_ticks                                    19894000                       # Number of ticks simulated
system.cpu.cc_regfile_reads                     28027                       # number of cc regfile reads
system.cpu.cc_regfile_writes                     3315                       # number of cc regfile writes
system.cpu.committedInsts                        4592                       # Number of Instructions Simulated
system.cpu.committedOps                          5391                       # Number of Ops (including micro ops) Simulated
system.cpu.cpi                               8.664852                       # CPI: Cycles Per Instruction
system.cpu.cpi_total                         8.664852                       # CPI: Total CPI of All Threads
system.cpu.idleCycles                           25809                       # Total number of cycles that the CPU has spent unscheduled due to idling
system.cpu.iew.branchMispredicts                  379                       # Number of branch mispredicts detected at execute
system.cpu.iew.exec_branches                     1416                       # Number of branches executed
system.cpu.iew.exec_nop                             0                       # number of nop insts executed
system.cpu.iew.exec_rate                     0.200633                       # Inst execution rate
system.cpu.iew.exec_refs                         3048                       # number of memory reference insts executed
system.cpu.iew.exec_stores                       1273                       # Number of stores executed
system.cpu.iew.exec_swp                             0                       # number of swp insts executed
system.cpu.iew.iewBlockCycles                    1082                       # Number of cycles IEW is blocking
system.cpu.iew.iewDispLoadInsts                  2261                       # Number of dispatched load instructions
system.cpu.iew.iewDispNonSpecInsts                 36                       # Number of dispatched non-speculative instructions
system.cpu.iew.iewDispSquashedInsts                39                       # Number of squashed instructions skipped by dispatch
system.cpu.iew.iewDispStoreInsts                 1576                       # Number of dispatched store instructions
system.cpu.iew.iewDispatchedInsts               10484                       # Number of instructions dispatched to IQ
system.cpu.iew.iewExecLoadInsts                  1775                       # Number of load instructions executed
system.cpu.iew.iewExecSquashedInsts               413                       # Number of squashed instructions skipped in execute
system.cpu.iew.iewExecutedInsts                  7983                       # Number of executed instructions
system.cpu.iew.iewIQFullEvents                      8                       # Number of times the IQ has become full, causing a stall
system.cpu.iew.iewIdleCycles                        0                       # Number of cycles IEW is idle
system.cpu.iew.iewLSQFullEvents                    50                       # Number of times the LSQ has become full, causing a stall
system.cpu.iew.iewSquashCycles                    369                       # Number of cycles IEW is squashing
system.cpu.iew.iewUnblockCycles                    58                       # Number of cycles IEW is unblocking
system.cpu.iew.memOrderViolationEvents             13                       # Number of memory order violations
system.cpu.iew.predictedNotTakenIncorrect          307                       # Number of branches that were predicted not taken incorrectly
system.cpu.iew.predictedTakenIncorrect             72                       # Number of branches that were predicted taken incorrectly
system.cpu.iew.wb_consumers                      6928                       # num instructions consuming a value
system.cpu.iew.wb_count                          7543                       # cumulative count of insts written-back
system.cpu.iew.wb_fanout                     0.519197                       # average fanout of values written-back
system.cpu.iew.wb_producers                      3597                       # num instructions producing a value
system.cpu.iew.wb_rate                       0.189575                       # insts written-back per cycle
system.cpu.iew.wb_sent                           7663                       # cumulative count of insts sent to commit
system.cpu.int_regfile_reads                     8198                       # number of integer regfile reads
system.cpu.int_regfile_writes                    4312                       # number of integer regfile writes
system.cpu.ipc                               0.115409                       # IPC: Instructions Per Cycle
system.cpu.ipc_total                         0.115409                       # IPC: Total IPC of All Threads
system.cpu.iq.FU_type_0::No_OpClass                14      0.17%      0.17% # Type of FU issued
system.cpu.iq.FU_type_0::IntAlu                  5105     60.80%     60.97% # Type of FU issued
system.cpu.iq.FU_type_0::IntMult                    7      0.08%     61.05% # Type of FU issued
system.cpu.iq.FU_type_0::IntDiv                     0      0.00%     61.05% # Type of FU issued
system.cpu.iq.FU_type_0::FloatAdd                   0      0.00%     61.05% # Type of FU issued
system.cpu.iq.FU_type_0::FloatCmp                   0      0.00%     61.05% # Type of FU issued
system.cpu.iq.FU_type_0::FloatCvt                   0      0.00%     61.05% # Type of FU issued
system.cpu.iq.FU_type_0::FloatMult                  0      0.00%     61.05% # Type of FU issued
system.cpu.iq.FU_type_0::FloatMultAcc               0      0.00%     61.05% # Type of FU issued
system.cpu.iq.FU_type_0::FloatDiv                   0      0.00%     61.05% # Type of FU issued
system.cpu.iq.FU_type_0::FloatMisc                  0      0.00%     61.05% # Type of FU issued
system.cpu.iq.FU_type_0::FloatSqrt                  0      0.00%     61.05% # Type of FU issued
system.cpu.iq.FU_type_0::SimdAdd                    0      0.00%     61.05% # Type of FU issued
system.cpu.iq.FU_type_0::SimdAddAcc                 0      0.00%     61.05% # Type of FU issued
system.cpu.iq.FU_type_0::SimdAlu                    0      0.00%     61.05% # Type of FU issued
system.cpu.iq.FU_type_0::SimdCmp                    0      0.00%     61.05% # Type of FU issued
system.cpu.iq.FU_type_0::SimdCvt                    0      0.00%     61.05% # Type of FU issued
system.cpu.iq.FU_type_0::SimdMisc                   0      0.00%     61.05% # Type of FU issued
system.cpu.iq.FU_type_0::SimdMult                   0      0.00%     61.05% # Type of FU issued
system.cpu.iq.FU_type_0::SimdMultAcc                0      0.00%     61.05% # Type of FU issued
system.cpu.iq.FU_type_0::SimdShift                  0      0.00%     61.05% # Type of FU issued
system.cpu.iq.FU_type_0::SimdShiftAcc               0      0.00%     61.05% # Type of FU issued
system.cpu.iq.FU_type_0::SimdDiv                    0      0.00%     61.05% # Type of FU issued
system.cpu.iq.FU_type_0::SimdSqrt                   0      0.00%     61.05% # Type of FU issued
system.cpu.iq.FU_type_0::SimdFloatAdd               0      0.00%     61.05% # Type of FU issued
system.cpu.iq.FU_type_0::SimdFloatAlu               0      0.00%     61.05% # Type of FU issued
system.cpu.iq.FU_type_0::SimdFloatCmp               0      0.00%     61.05% # Type of FU issued
system.cpu.iq.FU_type_0::SimdFloatCvt               0      0.00%     61.05% # Type of FU issued
system.cpu.iq.FU_type_0::SimdFloatDiv               0      0.00%     61.05% # Type of FU issued
system.cpu.iq.FU_type_0::SimdFloatMisc              0      0.00%     61.05% # Type of FU issued
system.cpu.iq.FU_type_0::SimdFloatMult              0      0.00%     61.05% # Type of FU issued
system.cpu.iq.FU_type_0::SimdFloatMultAcc            0      0.00%     61.05% # Type of FU issued
system.cpu.iq.FU_type_0::SimdFloatSqrt              0      0.00%     61.05% # Type of FU issued
system.cpu.iq.FU_type_0::SimdReduceAdd              0      0.00%     61.05% # Type of FU issued
system.cpu.iq.FU_type_0::SimdReduceAlu              0      0.00%     61.05% # Type of FU issued
system.cpu.iq.FU_type_0::SimdReduceCmp              0      0.00%     61.05% # Type of FU issued
system.cpu.iq.FU_type_0::SimdFloatReduceAdd            0      0.00%     61.05% # Type of FU issued
system.cpu.iq.FU_type_0::SimdFloatReduceCmp            0      0.00%     61.05% # Type of FU issued
system.cpu.iq.FU_type_0::SimdAes                    0      0.00%     61.05% # Type of FU issued
system.cpu.iq.FU_type_0::SimdAesMix                 0      0.00%     61.05% # Type of FU issued
system.cpu.iq.FU_type_0::SimdSha1Hash               0      0.00%     61.05% # Type of FU issued
system.cpu.iq.FU_type_0::SimdSha1Hash2              0      0.00%     61.05% # Type of FU issued
system.cpu.iq.FU_type_0::SimdSha256Hash             0      0.00%     61.05% # Type of FU issued
system.cpu.iq.FU_type_0::SimdSha256Hash2            0      0.00%     61.05% # Type of FU issued
system.cpu.iq.FU_type_0::SimdShaSigma2              0      0.00%     61.05% # Type of FU issued
system.cpu.iq.FU_type_0::SimdShaSigma3              0      0.00%     61.05% # Type of FU issued
system.cpu.iq.FU_type_0::SimdPredAlu                0      0.00%     61.05% # Type of FU issued
system.cpu.iq.FU_type_0::MemRead                 1941     23.12%     84.17% # Type of FU issued
system.cpu.iq.FU_type_0::MemWrite                1329     15.83%    100.00% # Type of FU issued
system.cpu.iq.FU_type_0::FloatMemRead               0      0.00%    100.00% # Type of FU issued
system.cpu.iq.FU_type_0::FloatMemWrite              0      0.00%    100.00% # Type of FU issued
system.cpu.iq.FU_type_0::IprAccess                  0      0.00%    100.00% # Type of FU issued
system.cpu.iq.FU_type_0::InstPrefetch               0      0.00%    100.00% # Type of FU issued
system.cpu.iq.FU_type_0::total                   8396                       # Type of FU issued
system.cpu.iq.fp_alu_accesses                       0                       # Number of floating point alu accesses
system.cpu.iq.fp_inst_queue_reads                   0                       # Number of floating instruction queue reads
system.cpu.iq.fp_inst_queue_wakeup_accesses            0                       # Number of floating instruction queue wakeup accesses
system.cpu.iq.fp_inst_queue_writes                  0                       # Number of floating instruction queue writes
system.cpu.iq.fu_busy_cnt                         159                       # FU busy when requested
system.cpu.iq.fu_busy_rate                   0.018938                       # FU busy rate (busy events/executed inst)
system.cpu.iq.fu_full::No_OpClass                   0      0.00%      0.00% # attempts to use FU when none available
system.cpu.iq.fu_full::IntAlu                      10      6.29%      6.29% # attempts to use FU when none available
system.cpu.iq.fu_full::IntMult                      0      0.00%      6.29% # attempts to use FU when none available
system.cpu.iq.fu_full::IntDiv                       0      0.00%      6.29% # attempts to use FU when none available
system.cpu.iq.fu_full::FloatAdd                     0      0.00%      6.29% # attempts to use FU when none available
system.cpu.iq.fu_full::FloatCmp                     0      0.00%      6.29% # attempts to use FU when none available
system.cpu.iq.fu_full::FloatCvt                     0      0.00%      6.29% # attempts to use FU when none available
system.cpu.iq.fu_full::FloatMult                    0      0.00%      6.29% # attempts to use FU when none available
system.cpu.iq.fu_full::FloatMultAcc                 0      0.00%      6.29% # attempts to use FU when none available
system.cpu.iq.fu_full::FloatDiv                     0      0.00%      6.29% # attempts to use FU when none available
system.cpu.iq.fu_full::FloatMisc                    0      0.00%      6.29% # attempts to use FU when none available
system.cpu.iq.fu_full::FloatSqrt                    0      0.00%      6.29% # attempts to use FU when none available
system.cpu.iq.fu_full::SimdAdd                      0      0.00%      6.29% # attempts to use FU when none available
system.cpu.iq.fu_full::SimdAddAcc                   0      0.00%      6.29% # attempts to use FU when none available
system.cpu.iq.fu_full::SimdAlu                      0      0.00%      6.29% # attempts to use FU when none available
system.cpu.iq.fu_full::SimdCmp                      0      0.00%      6.29% # attempts to use FU when none available
system.cpu.iq.fu_full::SimdCvt                      0      0.00%      6.29% # attempts to use FU when none available
system.cpu.iq.fu_full::SimdMisc                     0      0.00%      6.29% # attempts to use FU when none available
system.cpu.iq.fu_full::SimdMult                     0      0.00%      6.29% # attempts to use FU when none available
system.cpu.iq.fu_full::SimdMultAcc                  0      0.00%      6.29% # attempts to use FU when none available
system.cpu.iq.fu_full::SimdShift                    0      0.00%      6.29% # attempts to use FU when none available
system.cpu.iq.fu_full::SimdShiftAcc                 0      0.00%      6.29% # attempts to use FU when none available
system.cpu.iq.fu_full::SimdDiv                      0      0.00%      6.29% # attempts to use FU when none available
system.cpu.iq.fu_full::SimdSqrt                     0      0.00%      6.29% # attempts to use FU when none available
system.cpu.iq.fu_full::SimdFloatAdd                 0      0.00%      6.29% # attempts to use FU when none available
system.cpu.iq.fu_full::SimdFloatAlu                 0      0.00%      6.29% # attempts to use FU when none available
system.cpu.iq.fu_full::SimdFloatCmp                 0      0.00%      6.29% # attempts to use FU when none available
system.cpu.iq.fu_full::SimdFloatCvt                 0      0.00%      6.29% # attempts to use FU when none available
system.cpu.iq.fu_full::SimdFloatDiv                 0      0.00%      6.29% # attempts to use FU when none available
system.cpu.iq.fu_full::SimdFloatMisc                0      0.00%      6.29% # attempts to use FU when none available
system.cpu.iq.fu_full::SimdFloatMult                0      0.00%      6.29% # attempts to use FU when none available
system.cpu.iq.fu_full::SimdFloatMultAcc             0      0.00%      6.29% # attempts to use FU when none available
system.cpu.iq.fu_full::SimdFloatSqrt                0      0.00%      6.29% # attempts to use FU when none available
system.cpu.iq.fu_full::SimdReduceAdd                0      0.00%      6.29% # attempts to use FU when none available
system.cpu.iq.fu_full::SimdReduceAlu                0      0.00%      6.29% # attempts to use FU when none available
system.cpu.iq.fu_full::SimdReduceCmp                0      0.00%      6.29% # attempts to use FU when none available
system.cpu.iq.fu_full::SimdFloatReduceAdd            0      0.00%      6.29% # attempts to use FU when none available
system.cpu.iq.fu_full::SimdFloatReduceCmp            0      0.00%      6.29% # attempts to use FU when none available
system.cpu.iq.fu_full::SimdAes                      0      0.00%      6.29% # attempts to use FU when none available
system.cpu.iq.fu_full::SimdAesMix                   0      0.00%      6.29% # attempts to use FU when none available
system.cpu.iq.fu_full::SimdSha1Hash                 0      0.00%      6.29% # attempts to use FU when none available
system.cpu.iq.fu_full::SimdSha1Hash2                0      0.00%      6.29% # attempts to use FU when none available
system.cpu.iq.fu_full::SimdSha256Hash               0      0.00%      6.29% # attempts to use FU when none available
system.cpu.iq.fu_full::SimdSha256Hash2              0      0.00%      6.29% # attempts to use FU when none available
system.cpu.iq.fu_full::SimdShaSigma2                0      0.00%      6.29% # attempts to use FU when none available
system.cpu.iq.fu_full::SimdShaSigma3                0      0.00%      6.29% # attempts to use FU when none available
system.cpu.iq.fu_full::SimdPredAlu                  0      0.00%      6.29% # attempts to use FU when none available
system.cpu.iq.fu_full::MemRead                     53     33.33%     39.62% # attempts to use FU when none available
system.cpu.iq.fu_full::MemWrite                    96     60.38%    100.00% # attempts to use FU when none available
system.cpu.iq.fu_full::FloatMemRead                 0      0.00%    100.00% # attempts to use FU when none available
system.cpu.iq.fu_full::FloatMemWrite                0      0.00%    100.00% # attempts to use FU when none available
system.cpu.iq.fu_full::IprAccess                    0      0.00%    100.00% # attempts to use FU when none available
system.cpu.iq.fu_full::InstPrefetch                 0      0.00%    100.00% # attempts to use FU when none available
system.cpu.iq.int_alu_accesses                   8541                       # Number of integer alu accesses
system.cpu.iq.int_inst_queue_reads              30955                       # Number of integer instruction queue reads
system.cpu.iq.int_inst_queue_wakeup_accesses         7543                       # Number of integer instruction queue wakeup accesses
system.cpu.iq.int_inst_queue_writes             15585                       # Number of integer instruction queue writes
system.cpu.iq.iqInstsAdded                      10436                       # Number of instructions added to the IQ (excludes non-spec)
system.cpu.iq.iqInstsIssued                      8396                       # Number of instructions issued
system.cpu.iq.iqNonSpecInstsAdded                  48                       # Number of non-speculative instructions added to the IQ
system.cpu.iq.iqSquashedInstsExamined            5092                       # Number of squashed instructions iterated over during squash; mainly for profiling
system.cpu.iq.iqSquashedInstsIssued                24                       # Number of squashed instructions issued
system.cpu.iq.iqSquashedNonSpecRemoved             15                       # Number of squashed non-spec instructions that were removed
system.cpu.iq.iqSquashedOperandsExamined        12675                       # Number of squashed operands that are examined and possibly removed from graph
system.cpu.iq.issued_per_cycle::samples         13980                       # Number of insts issued each cycle
system.cpu.iq.issued_per_cycle::mean         0.600572                       # Number of insts issued each cycle
system.cpu.iq.issued_per_cycle::stdev        1.369175                       # Number of insts issued each cycle
system.cpu.iq.issued_per_cycle::underflows            0      0.00%      0.00% # Number of insts issued each cycle
system.cpu.iq.issued_per_cycle::0               10743     76.85%     76.85% # Number of insts issued each cycle
system.cpu.iq.issued_per_cycle::1                1201      8.59%     85.44% # Number of insts issued each cycle
system.cpu.iq.issued_per_cycle::2                 695      4.97%     90.41% # Number of insts issued each cycle
system.cpu.iq.issued_per_cycle::3                 429      3.07%     93.48% # Number of insts issued each cycle
system.cpu.iq.issued_per_cycle::4                 383      2.74%     96.22% # Number of insts issued each cycle
system.cpu.iq.issued_per_cycle::5                 308      2.20%     98.42% # Number of insts issued each cycle
system.cpu.iq.issued_per_cycle::6                 132      0.94%     99.36% # Number of insts issued each cycle
system.cpu.iq.issued_per_cycle::7                  58      0.41%     99.78% # Number of insts issued each cycle
system.cpu.iq.issued_per_cycle::8                  31      0.22%    100.00% # Number of insts issued each cycle
system.cpu.iq.issued_per_cycle::overflows            0      0.00%    100.00% # Number of insts issued each cycle
system.cpu.iq.issued_per_cycle::min_value            0                       # Number of insts issued each cycle
system.cpu.iq.issued_per_cycle::max_value            8                       # Number of insts issued each cycle
system.cpu.iq.issued_per_cycle::total           13980                       # Number of insts issued each cycle
system.cpu.iq.rate                           0.211013                       # Inst issue rate
system.cpu.iq.vec_alu_accesses                      0                       # Number of vector alu accesses
system.cpu.iq.vec_inst_queue_reads                  0                       # Number of vector instruction queue reads
system.cpu.iq.vec_inst_queue_wakeup_accesses            0                       # Number of vector instruction queue wakeup accesses
system.cpu.iq.vec_inst_queue_writes                 0                       # Number of vector instruction queue writes
system.cpu.memDep0.conflictingLoads                23                       # Number of conflicting loads.
system.cpu.memDep0.conflictingStores               11                       # Number of conflicting stores.
system.cpu.memDep0.insertedLoads                 2261                       # Number of loads inserted to the mem dependence unit.
system.cpu.memDep0.insertedStores                1576                       # Number of stores inserted to the mem dependence unit.
system.cpu.misc_regfile_reads                   22971                       # number of misc regfile reads
system.cpu.misc_regfile_writes                     45                       # number of misc regfile writes
system.cpu.numCycles                            39789                       # number of cpu cycles simulated
system.cpu.numWorkItemsCompleted                    0                       # number of work items this cpu completed
system.cpu.numWorkItemsStarted                      0                       # number of work items this cpu started
system.cpu.timesIdled                             234                       # Number of times that the entire CPU went into an idle state and unscheduled itself
system.cpu.vec_regfile_reads                       16                       # number of vector regfile reads
system.cpu.workload.numSyscalls                    10                       # Number of system calls
system.membus.snoop_filter.hit_multi_requests            0                       # Number of requests hitting in the snoop filter with multiple (>1) holders of the requested data.
system.membus.snoop_filter.hit_multi_snoops            0                       # Number of snoops hitting in the snoop filter with multiple (>1) holders of the requested data.
system.membus.snoop_filter.hit_single_requests           15                       # Number of requests hitting in the snoop filter with a single holder of the requested data.
system.membus.snoop_filter.hit_single_snoops            0                       # Number of snoops hitting in the snoop filter with a single holder of the requested data.
system.membus.snoop_filter.tot_requests           466                       # Total number of requests made to the snoop filter.
system.membus.snoop_filter.tot_snoops               0                       # Total number of snoops made to the snoop filter.
system.tol2bus.snoop_filter.hit_multi_requests            6                       # Number of requests hitting in the snoop filter with multiple (>1) holders of the requested data.
system.tol2bus.snoop_filter.hit_multi_snoops           17                       # Number of snoops hitting in the snoop filter with multiple (>1) holders of the requested data.
system.tol2bus.snoop_filter.hit_single_requests           70                       # Number of requests hitting in the snoop filter with a single holder of the requested data.
system.tol2bus.snoop_filter.hit_single_snoops          236                       # Number of snoops hitting in the snoop filter with a single holder of the requested data.
system.tol2bus.snoop_filter.tot_requests          531                       # Total number of requests made to the snoop filter.
system.tol2bus.snoop_filter.tot_snoops            253                       # Total number of snoops made to the snoop filter.
system.clk_domain.clock                          1000                       # Clock period in ticks
system.cpu.branchPred.lookups                    2684                       # Number of BP lookups
system.cpu.branchPred.condPredicted              1770                       # Number of conditional branches predicted
system.cpu.branchPred.condIncorrect               500                       # Number of conditional branches incorrect
system.cpu.branchPred.BTBLookups                 1405                       # Number of BTB lookups
system.cpu.branchPred.BTBHits                     711                       # Number of BTB hits
system.cpu.branchPred.BTBHitPct             50.604982                       # BTB Hit Percentage
system.cpu.branchPred.RASUsed                     261                       # Number of times the RAS was used to get a target.
system.cpu.branchPred.RASIncorrect                 39                       # Number of incorrect RAS predictions.
system.cpu.branchPred.indirectLookups             146                       # Number of indirect predictor lookups.
system.cpu.branchPred.indirectHits                 11                       # Number of indirect target hits.
system.cpu.branchPred.indirectMisses              135                       # Number of indirect misses.
system.cpu.branchPred.indirectMispredicted           64                       # Number of mispredicted indirect branches.
system.cpu.commit.commitSquashedInsts            5098                       # The number of squashed insts skipped by commit
system.cpu.commit.commitNonSpecStalls              33                       # The number of times commit has been forced to stall to communicate backwards
system.cpu.commit.branchMispredicts               349                       # The number of times a branch was mispredicted
system.cpu.commit.numCommittedDist::samples        13047                       # Number of insts commited each cycle
system.cpu.commit.numCommittedDist::mean     0.413198                       # Number of insts commited each cycle
system.cpu.commit.numCommittedDist::stdev     1.226822                       # Number of insts commited each cycle
system.cpu.commit.numCommittedDist::underflows            0      0.00%      0.00% # Number of insts commited each cycle
system.cpu.commit.numCommittedDist::0           10967     84.06%     84.06% # Number of insts commited each cycle
system.cpu.commit.numCommittedDist::1             860      6.59%     90.65% # Number of insts commited each cycle
system.cpu.commit.numCommittedDist::2             464      3.56%     94.21% # Number of insts commited each cycle
system.cpu.commit.numCommittedDist::3             204      1.56%     95.77% # Number of insts commited each cycle
system.cpu.commit.numCommittedDist::4             177      1.36%     97.13% # Number of insts commited each cycle
system.cpu.commit.numCommittedDist::5             188      1.44%     98.57% # Number of insts commited each cycle
system.cpu.commit.numCommittedDist::6              53      0.41%     98.97% # Number of insts commited each cycle
system.cpu.commit.numCommittedDist::7              47      0.36%     99.33% # Number of insts commited each cycle
system.cpu.commit.numCommittedDist::8              87      0.67%    100.00% # Number of insts commited each cycle
system.cpu.commit.numCommittedDist::overflows            0      0.00%    100.00% # Number of insts commited each cycle
system.cpu.commit.numCommittedDist::min_value            0                       # Number of insts commited each cycle
system.cpu.commit.numCommittedDist::max_value            8                       # Number of insts commited each cycle
system.cpu.commit.numCommittedDist::total        13047                       # Number of insts commited each cycle
system.cpu.commit.instsCommitted                 4592                       # Number of instructions committed
system.cpu.commit.opsCommitted                   5391                       # Number of ops (including micro ops) committed
system.cpu.commit.memRefs                        2009                       # Number of memory references committed
system.cpu.commit.loads                          1010                       # Number of loads committed
system.cpu.commit.amos                              0                       # Number of atomic instructions committed
system.cpu.commit.membars                          12                       # Number of memory barriers committed
system.cpu.commit.branches                        958                       # Number of branches committed
system.cpu.commit.vector                            0                       # Number of committed Vector instructions.
system.cpu.commit.floating                          0                       # Number of committed floating point instructions.
system.cpu.commit.integer                        4663                       # Number of committed integer instructions.
system.cpu.commit.functionCalls                    89                       # Number of function calls committed.
system.cpu.commit.committedInstType_0::No_OpClass            0      0.00%      0.00% # Class of committed instruction
system.cpu.commit.committedInstType_0::IntAlu         3378     62.66%     62.66% # Class of committed instruction
system.cpu.commit.committedInstType_0::IntMult            4      0.07%     62.73% # Class of committed instruction
system.cpu.commit.committedInstType_0::IntDiv            0      0.00%     62.73% # Class of committed instruction
system.cpu.commit.committedInstType_0::FloatAdd            0      0.00%     62.73% # Class of committed instruction
system.cpu.commit.committedInstType_0::FloatCmp            0      0.00%     62.73% # Class of committed instruction
system.cpu.commit.committedInstType_0::FloatCvt            0      0.00%     62.73% # Class of committed instruction
system.cpu.commit.committedInstType_0::FloatMult            0      0.00%     62.73% # Class of committed instruction
system.cpu.commit.committedInstType_0::FloatMultAcc            0      0.00%     62.73% # Class of committed instruction
system.cpu.commit.committedInstType_0::FloatDiv            0      0.00%     62.73% # Class of committed instruction
system.cpu.commit.committedInstType_0::FloatMisc            0      0.00%     62.73% # Class of committed instruction
system.cpu.commit.committedInstType_0::FloatSqrt            0      0.00%     62.73% # Class of committed instruction
system.cpu.commit.committedInstType_0::SimdAdd            0      0.00%     62.73% # Class of committed instruction
system.cpu.commit.committedInstType_0::SimdAddAcc            0      0.00%     62.73% # Class of committed instruction
system.cpu.commit.committedInstType_0::SimdAlu            0      0.00%     62.73% # Class of committed instruction
system.cpu.commit.committedInstType_0::SimdCmp            0      0.00%     62.73% # Class of committed instruction
system.cpu.commit.committedInstType_0::SimdCvt            0      0.00%     62.73% # Class of committed instruction
system.cpu.commit.committedInstType_0::SimdMisc            0      0.00%     62.73% # Class of committed instruction
system.cpu.commit.committedInstType_0::SimdMult            0      0.00%     62.73% # Class of committed instruction
system.cpu.commit.committedInstType_0::SimdMultAcc            0      0.00%     62.73% # Class of committed instruction
system.cpu.commit.committedInstType_0::SimdShift            0      0.00%     62.73% # Class of committed instruction
system.cpu.commit.committedInstType_0::SimdShiftAcc            0      0.00%     62.73% # Class of committed instruction
system.cpu.commit.committedInstType_0::SimdDiv            0      0.00%     62.73% # Class of committed instruction
system.cpu.commit.committedInstType_0::SimdSqrt            0      0.00%     62.73% # Class of committed instruction
system.cpu.commit.committedInstType_0::SimdFloatAdd            0      0.00%     62.73% # Class of committed instruction
system.cpu.commit.committedInstType_0::SimdFloatAlu            0      0.00%     62.73% # Class of committed instruction
system.cpu.commit.committedInstType_0::SimdFloatCmp            0      0.00%     62.73% # Class of committed instruction
system.cpu.commit.committedInstType_0::SimdFloatCvt            0      0.00%     62.73% # Class of committed instruction
system.cpu.commit.committedInstType_0::SimdFloatDiv            0      0.00%     62.73% # Class of committed instruction
system.cpu.commit.committedInstType_0::SimdFloatMisc            0      0.00%     62.73% # Class of committed instruction
system.cpu.commit.committedInstType_0::SimdFloatMult            0      0.00%     62.73% # Class of committed instruction
system.cpu.commit.committedInstType_0::SimdFloatMultAcc            0      0.00%     62.73% # Class of committed instruction
system.cpu.commit.committedInstType_0::SimdFloatSqrt            0      0.00%     62.73% # Class of committed instruction
system.cpu.commit.committedInstType_0::SimdReduceAdd            0      0.00%     62.73% # Class of committed instruction
system.cpu.commit.committedInstType_0::SimdReduceAlu            0      0.00%     62.73% # Class of committed instruction
system.cpu.commit.committedInstType_0::SimdReduceCmp            0      0.00%     62.73% # Class of committed instruction
system.cpu.commit.committedInstType_0::SimdFloatReduceAdd            0      0.00%     62.73% # Class of committed instruction
system.cpu.commit.committedInstType_0::SimdFloatReduceCmp            0      0.00%     62.73% # Class of committed instruction
system.cpu.commit.committedInstType_0::SimdAes            0      0.00%     62.73% # Class of committed instruction
system.cpu.commit.committedInstType_0::SimdAesMix            0      0.00%     62.73% # Class of committed instruction
system.cpu.commit.committedInstType_0::SimdSha1Hash            0      0.00%     62.73% # Class of committed instruction
system.cpu.commit.committedInstType_0::SimdSha1Hash2            0      0.00%     62.73% # Class of committed instruction
system.cpu.commit.committedInstType_0::SimdSha256Hash            0      0.00%     62.73% # Class of committed instruction
system.cpu.commit.committedInstType_0::SimdSha256Hash2            0      0.00%     62.73% # Class of committed instruction
system.cpu.commit.committedInstType_0::SimdShaSigma2            0      0.00%     62.73% # Class of committed instruction
system.cpu.commit.committedInstType_0::SimdShaSigma3            0      0.00%     62.73% # Class of committed instruction
system.cpu.commit.committedInstType_0::SimdPredAlu            0      0.00%     62.73% # Class of committed instruction
system.cpu.commit.committedInstType_0::MemRead         1010     18.73%     81.47% # Class of committed instruction
system.cpu.commit.committedInstType_0::MemWrite          999     18.53%    100.00% # Class of committed instruction
system.cpu.commit.committedInstType_0::FloatMemRead            0      0.00%    100.00% # Class of committed instruction
system.cpu.commit.committedInstType_0::FloatMemWrite            0      0.00%    100.00% # Class of committed instruction
system.cpu.commit.committedInstType_0::IprAccess            0      0.00%    100.00% # Class of committed instruction
system.cpu.commit.committedInstType_0::InstPrefetch            0      0.00%    100.00% # Class of committed instruction
system.cpu.commit.committedInstType_0::total         5391                       # Class of committed instruction
system.cpu.commit.commitEligibleSamples            87                       # number cycles where commit BW limit reached
system.cpu.dcache.demand_hits::.cpu.data         2036                       # number of demand (read+write) hits
system.cpu.dcache.demand_hits::total             2036                       # number of demand (read+write) hits
system.cpu.dcache.overall_hits::.cpu.data         2036                       # number of overall hits
system.cpu.dcache.overall_hits::total            2036                       # number of overall hits
system.cpu.dcache.demand_misses::.cpu.data          575                       # number of demand (read+write) misses
system.cpu.dcache.demand_misses::total            575                       # number of demand (read+write) misses
system.cpu.dcache.overall_misses::.cpu.data          575                       # number of overall misses
system.cpu.dcache.overall_misses::total           575                       # number of overall misses
system.cpu.dcache.demand_miss_latency::.cpu.data     39043498                       # number of demand (read+write) miss cycles
system.cpu.dcache.demand_miss_latency::total     39043498                       # number of demand (read+write) miss cycles
system.cpu.dcache.overall_miss_latency::.cpu.data     39043498                       # number of overall miss cycles
system.cpu.dcache.overall_miss_latency::total     39043498                       # number of overall miss cycles
system.cpu.dcache.demand_accesses::.cpu.data         2611                       # number of demand (read+write) accesses
system.cpu.dcache.demand_accesses::total         2611                       # number of demand (read+write) accesses
system.cpu.dcache.overall_accesses::.cpu.data         2611                       # number of overall (read+write) accesses
system.cpu.dcache.overall_accesses::total         2611                       # number of overall (read+write) accesses
system.cpu.dcache.demand_miss_rate::.cpu.data     0.220222                       # miss rate for demand accesses
system.cpu.dcache.demand_miss_rate::total     0.220222                       # miss rate for demand accesses
system.cpu.dcache.overall_miss_rate::.cpu.data     0.220222                       # miss rate for overall accesses
system.cpu.dcache.overall_miss_rate::total     0.220222                       # miss rate for overall accesses
system.cpu.dcache.demand_avg_miss_latency::.cpu.data 67901.735652                       # average overall miss latency
system.cpu.dcache.demand_avg_miss_latency::total 67901.735652                       # average overall miss latency
system.cpu.dcache.overall_avg_miss_latency::.cpu.data 67901.735652                       # average overall miss latency
system.cpu.dcache.overall_avg_miss_latency::total 67901.735652                       # average overall miss latency
system.cpu.dcache.blocked_cycles::no_mshrs          295                       # number of cycles access was blocked
system.cpu.dcache.blocked_cycles::no_targets            0                       # number of cycles access was blocked
system.cpu.dcache.blocked::no_mshrs                10                       # number of cycles access was blocked
system.cpu.dcache.blocked::no_targets               0                       # number of cycles access was blocked
system.cpu.dcache.avg_blocked_cycles::no_mshrs    29.500000                       # average number of cycles each access was blocked
system.cpu.dcache.avg_blocked_cycles::no_targets          nan                       # average number of cycles each access was blocked
system.cpu.dcache.writebacks::.writebacks            1                       # number of writebacks
system.cpu.dcache.writebacks::total                 1                       # number of writebacks
system.cpu.dcache.demand_mshr_hits::.cpu.data          412                       # number of demand (read+write) MSHR hits
system.cpu.dcache.demand_mshr_hits::total          412                       # number of demand (read+write) MSHR hits
system.cpu.dcache.overall_mshr_hits::.cpu.data          412                       # number of overall MSHR hits
system.cpu.dcache.overall_mshr_hits::total          412                       # number of overall MSHR hits
system.cpu.dcache.demand_mshr_misses::.cpu.data          163                       # number of demand (read+write) MSHR misses
system.cpu.dcache.demand_mshr_misses::total          163                       # number of demand (read+write) MSHR misses
system.cpu.dcache.overall_mshr_misses::.cpu.data          163                       # number of overall MSHR misses
system.cpu.dcache.overall_mshr_misses::total          163                       # number of overall MSHR misses
system.cpu.dcache.demand_mshr_miss_latency::.cpu.data     12834999                       # number of demand (read+write) MSHR miss cycles
system.cpu.dcache.demand_mshr_miss_latency::total     12834999                       # number of demand (read+write) MSHR miss cycles
system.cpu.dcache.overall_mshr_miss_latency::.cpu.data     12834999                       # number of overall MSHR miss cycles
system.cpu.dcache.overall_mshr_miss_latency::total     12834999                       # number of overall MSHR miss cycles
system.cpu.dcache.demand_mshr_miss_rate::.cpu.data     0.062428                       # mshr miss rate for demand accesses
system.cpu.dcache.demand_mshr_miss_rate::total     0.062428                       # mshr miss rate for demand accesses
system.cpu.dcache.overall_mshr_miss_rate::.cpu.data     0.062428                       # mshr miss rate for overall accesses
system.cpu.dcache.overall_mshr_miss_rate::total     0.062428                       # mshr miss rate for overall accesses
system.cpu.dcache.demand_avg_mshr_miss_latency::.cpu.data 78742.325153                       # average overall mshr miss latency
system.cpu.dcache.demand_avg_mshr_miss_latency::total 78742.325153                       # average overall mshr miss latency
system.cpu.dcache.overall_avg_mshr_miss_latency::.cpu.data 78742.325153                       # average overall mshr miss latency
system.cpu.dcache.overall_avg_mshr_miss_latency::total 78742.325153                       # average overall mshr miss latency
system.cpu.dcache.replacements                      7                       # number of replacements
system.cpu.dcache.ReadReq_hits::.cpu.data         1375                       # number of ReadReq hits
system.cpu.dcache.ReadReq_hits::total            1375                       # number of ReadReq hits
system.cpu.dcache.ReadReq_misses::.cpu.data          265                       # number of ReadReq misses
system.cpu.dcache.ReadReq_misses::total           265                       # number of ReadReq misses
system.cpu.dcache.ReadReq_miss_latency::.cpu.data     18256000                       # number of ReadReq miss cycles
system.cpu.dcache.ReadReq_miss_latency::total     18256000                       # number of ReadReq miss cycles
system.cpu.dcache.ReadReq_accesses::.cpu.data         1640                       # number of ReadReq accesses(hits+misses)
system.cpu.dcache.ReadReq_accesses::total         1640                       # number of ReadReq accesses(hits+misses)
system.cpu.dcache.ReadReq_miss_rate::.cpu.data     0.161585                       # miss rate for ReadReq accesses
system.cpu.dcache.ReadReq_miss_rate::total     0.161585                       # miss rate for ReadReq accesses
system.cpu.dcache.ReadReq_avg_miss_latency::.cpu.data 68890.566038                       # average ReadReq miss latency
system.cpu.dcache.ReadReq_avg_miss_latency::total 68890.566038                       # average ReadReq miss latency
system.cpu.dcache.ReadReq_mshr_hits::.cpu.data          151                       # number of ReadReq MSHR hits
system.cpu.dcache.ReadReq_mshr_hits::total          151                       # number of ReadReq MSHR hits
system.cpu.dcache.ReadReq_mshr_misses::.cpu.data          114                       # number of ReadReq MSHR misses
system.cpu.dcache.ReadReq_mshr_misses::total          114                       # number of ReadReq MSHR misses
system.cpu.dcache.ReadReq_mshr_miss_latency::.cpu.data      8655500                       # number of ReadReq MSHR miss cycles
system.cpu.dcache.ReadReq_mshr_miss_latency::total      8655500                       # number of ReadReq MSHR miss cycles
system.cpu.dcache.ReadReq_mshr_miss_rate::.cpu.data     0.069512                       # mshr miss rate for ReadReq accesses
system.cpu.dcache.ReadReq_mshr_miss_rate::total     0.069512                       # mshr miss rate for ReadReq accesses
system.cpu.dcache.ReadReq_avg_mshr_miss_latency::.cpu.data 75925.438596                       # average ReadReq mshr miss latency
system.cpu.dcache.ReadReq_avg_mshr_miss_latency::total 75925.438596                       # average ReadReq mshr miss latency
system.cpu.dcache.WriteReq_hits::.cpu.data          661                       # number of WriteReq hits
system.cpu.dcache.WriteReq_hits::total            661                       # number of WriteReq hits
system.cpu.dcache.WriteReq_misses::.cpu.data          310                       # number of WriteReq misses
system.cpu.dcache.WriteReq_misses::total          310                       # number of WriteReq misses
system.cpu.dcache.WriteReq_miss_latency::.cpu.data     20787498                       # number of WriteReq miss cycles
system.cpu.dcache.WriteReq_miss_latency::total     20787498                       # number of WriteReq miss cycles
system.cpu.dcache.WriteReq_accesses::.cpu.data          971                       # number of WriteReq accesses(hits+misses)
system.cpu.dcache.WriteReq_accesses::total          971                       # number of WriteReq accesses(hits+misses)
system.cpu.dcache.WriteReq_miss_rate::.cpu.data     0.319258                       # miss rate for WriteReq accesses
system.cpu.dcache.WriteReq_miss_rate::total     0.319258                       # miss rate for WriteReq accesses
system.cpu.dcache.WriteReq_avg_miss_latency::.cpu.data 67056.445161                       # average WriteReq miss latency
system.cpu.dcache.WriteReq_avg_miss_latency::total 67056.445161                       # average WriteReq miss latency
system.cpu.dcache.WriteReq_mshr_hits::.cpu.data          261                       # number of WriteReq MSHR hits
system.cpu.dcache.WriteReq_mshr_hits::total          261                       # number of WriteReq MSHR hits
system.cpu.dcache.WriteReq_mshr_misses::.cpu.data           49                       # number of WriteReq MSHR misses
system.cpu.dcache.WriteReq_mshr_misses::total           49                       # number of WriteReq MSHR misses
system.cpu.dcache.WriteReq_mshr_miss_latency::.cpu.data      4179499                       # number of WriteReq MSHR miss cycles
system.cpu.dcache.WriteReq_mshr_miss_latency::total      4179499                       # number of WriteReq MSHR miss cycles
system.cpu.dcache.WriteReq_mshr_miss_rate::.cpu.data     0.050463                       # mshr miss rate for WriteReq accesses
system.cpu.dcache.WriteReq_mshr_miss_rate::total     0.050463                       # mshr miss rate for WriteReq accesses
system.cpu.dcache.WriteReq_avg_mshr_miss_latency::.cpu.data 85295.897959                       # average WriteReq mshr miss latency
system.cpu.dcache.WriteReq_avg_mshr_miss_latency::total 85295.897959                       # average WriteReq mshr miss latency
system.cpu.dcache.LoadLockedReq_hits::.cpu.data           13                       # number of LoadLockedReq hits
system.cpu.dcache.LoadLockedReq_hits::total           13                       # number of LoadLockedReq hits
system.cpu.dcache.LoadLockedReq_misses::.cpu.data            1                       # number of LoadLockedReq misses
system.cpu.dcache.LoadLockedReq_misses::total            1                       # number of LoadLockedReq misses
system.cpu.dcache.LoadLockedReq_miss_latency::.cpu.data        72000                       # number of LoadLockedReq miss cycles
system.cpu.dcache.LoadLockedReq_miss_latency::total        72000                       # number of LoadLockedReq miss cycles
system.cpu.dcache.LoadLockedReq_accesses::.cpu.data           14                       # number of LoadLockedReq accesses(hits+misses)
system.cpu.dcache.LoadLockedReq_accesses::total           14                       # number of LoadLockedReq accesses(hits+misses)
system.cpu.dcache.LoadLockedReq_miss_rate::.cpu.data     0.071429                       # miss rate for LoadLockedReq accesses
system.cpu.dcache.LoadLockedReq_miss_rate::total     0.071429                       # miss rate for LoadLockedReq accesses
system.cpu.dcache.LoadLockedReq_avg_miss_latency::.cpu.data        72000                       # average LoadLockedReq miss latency
system.cpu.dcache.LoadLockedReq_avg_miss_latency::total        72000                       # average LoadLockedReq miss latency
system.cpu.dcache.LoadLockedReq_mshr_hits::.cpu.data            1                       # number of LoadLockedReq MSHR hits
system.cpu.dcache.LoadLockedReq_mshr_hits::total            1                       # number of LoadLockedReq MSHR hits
system.cpu.dcache.StoreCondReq_hits::.cpu.data           11                       # number of StoreCondReq hits
system.cpu.dcache.StoreCondReq_hits::total           11                       # number of StoreCondReq hits
system.cpu.dcache.StoreCondReq_accesses::.cpu.data           11                       # number of StoreCondReq accesses(hits+misses)
system.cpu.dcache.StoreCondReq_accesses::total           11                       # number of StoreCondReq accesses(hits+misses)
system.cpu.dcache.power_state.pwrStateResidencyTicks::UNDEFINED     19894000                       # Cumulative time (in ticks) in various power states
system.cpu.dcache.tags.tagsinuse            90.698505                       # Cycle average of tags in use
system.cpu.dcache.tags.total_refs                2223                       # Total number of references to valid blocks.
system.cpu.dcache.tags.sampled_refs               163                       # Sample count of references to valid blocks.
system.cpu.dcache.tags.avg_refs             13.638037                       # Average number of references to valid blocks.
system.cpu.dcache.tags.warmup_cycle            176500                       # Cycle when the warmup percentage was hit.
system.cpu.dcache.tags.occ_blocks::.cpu.data    90.698505                       # Average occupied blocks per requestor
system.cpu.dcache.tags.occ_percent::.cpu.data     0.177146                       # Average percentage of cache occupancy
system.cpu.dcache.tags.occ_percent::total     0.177146                       # Average percentage of cache occupancy
system.cpu.dcache.tags.occ_task_id_blocks::1024          156                       # Occupied blocks per task id
system.cpu.dcache.tags.age_task_id_blocks_1024::0           63                       # Occupied blocks per task id
system.cpu.dcache.tags.age_task_id_blocks_1024::1           93                       # Occupied blocks per task id
system.cpu.dcache.tags.occ_task_id_percent::1024     0.304688                       # Percentage of cache occupancy per task id
system.cpu.dcache.tags.tag_accesses              5435                       # Number of tag accesses
system.cpu.dcache.tags.data_accesses             5435                       # Number of data accesses
system.cpu.dcache.tags.power_state.pwrStateResidencyTicks::UNDEFINED     19894000                       # Cumulative time (in ticks) in various power states
system.cpu.decode.idleCycles                     7149                       # Number of cycles decode is idle
system.cpu.decode.blockedCycles                  4184                       # Number of cycles decode is blocked
system.cpu.decode.runCycles                      2106                       # Number of cycles decode is running
system.cpu.decode.unblockCycles                   172                       # Number of cycles decode is unblocking
system.cpu.decode.squashCycles                    369                       # Number of cycles decode is squashing
system.cpu.decode.branchResolved                  813                       # Number of times decode resolved a  branch
system.cpu.decode.branchMispred                   179                       # Number of times decode detected a branch misprediction
system.cpu.decode.decodedInsts                  12232                       # Number of instructions handled by decode
system.cpu.decode.squashedInsts                   602                       # Number of squashed instructions handled by decode
system.cpu.dtb.instHits                             0                       # ITB inst hits
system.cpu.dtb.instMisses                           0                       # ITB inst misses
system.cpu.dtb.readHits                             0                       # DTB read hits
system.cpu.dtb.readMisses                           0                       # DTB read misses
system.cpu.dtb.writeHits                            0                       # DTB write hits
system.cpu.dtb.writeMisses                          0                       # DTB write misses
system.cpu.dtb.inserts                              0                       # Number of times an entry is inserted into the TLB
system.cpu.dtb.flushTlb                             0                       # Number of times complete TLB was flushed
system.cpu.dtb.flushTlbMva                          0                       # Number of times TLB was flushed by MVA
system.cpu.dtb.flushTlbMvaAsid                      0                       # Number of times TLB was flushed by MVA & ASID
system.cpu.dtb.flushTlbAsid                         0                       # Number of times TLB was flushed by ASID
system.cpu.dtb.flushedEntries                       0                       # Number of entries that have been flushed from TLB
system.cpu.dtb.alignFaults                          0                       # Number of TLB faults due to alignment restrictions
system.cpu.dtb.prefetchFaults                       0                       # Number of TLB faults due to prefetch
system.cpu.dtb.domainFaults                         0                       # Number of TLB faults due to domain restrictions
system.cpu.dtb.permsFaults                          0                       # Number of TLB faults due to permissions restrictions
system.cpu.dtb.readAccesses                         0                       # DTB read accesses
system.cpu.dtb.writeAccesses                        0                       # DTB write accesses
system.cpu.dtb.instAccesses                         0                       # ITB inst accesses
system.cpu.dtb.hits                                 0                       # Total TLB (inst and data) hits
system.cpu.dtb.misses                               0                       # Total TLB (inst and data) misses
system.cpu.dtb.accesses                             0                       # Total TLB (inst and data) accesses
system.cpu.dtb.stage2_mmu.stage2_tlb.instHits            0                       # ITB inst hits
system.cpu.dtb.stage2_mmu.stage2_tlb.instMisses            0                       # ITB inst misses
system.cpu.dtb.stage2_mmu.stage2_tlb.readHits            0                       # DTB read hits
system.cpu.dtb.stage2_mmu.stage2_tlb.readMisses            0                       # DTB read misses
system.cpu.dtb.stage2_mmu.stage2_tlb.writeHits            0                       # DTB write hits
system.cpu.dtb.stage2_mmu.stage2_tlb.writeMisses            0                       # DTB write misses
system.cpu.dtb.stage2_mmu.stage2_tlb.inserts            0                       # Number of times an entry is inserted into the TLB
system.cpu.dtb.stage2_mmu.stage2_tlb.flushTlb            0                       # Number of times complete TLB was flushed
system.cpu.dtb.stage2_mmu.stage2_tlb.flushTlbMva            0                       # Number of times TLB was flushed by MVA
system.cpu.dtb.stage2_mmu.stage2_tlb.flushTlbMvaAsid            0                       # Number of times TLB was flushed by MVA & ASID
system.cpu.dtb.stage2_mmu.stage2_tlb.flushTlbAsid            0                       # Number of times TLB was flushed by ASID
system.cpu.dtb.stage2_mmu.stage2_tlb.flushedEntries            0                       # Number of entries that have been flushed from TLB
system.cpu.dtb.stage2_mmu.stage2_tlb.alignFaults            0                       # Number of TLB faults due to alignment restrictions
system.cpu.dtb.stage2_mmu.stage2_tlb.prefetchFaults            0                       # Number of TLB faults due to prefetch
system.cpu.dtb.stage2_mmu.stage2_tlb.domainFaults            0                       # Number of TLB faults due to domain restrictions
system.cpu.dtb.stage2_mmu.stage2_tlb.permsFaults            0                       # Number of TLB faults due to permissions restrictions
system.cpu.dtb.stage2_mmu.stage2_tlb.readAccesses            0                       # DTB read accesses
system.cpu.dtb.stage2_mmu.stage2_tlb.writeAccesses            0                       # DTB write accesses
system.cpu.dtb.stage2_mmu.stage2_tlb.instAccesses            0                       # ITB inst accesses
system.cpu.dtb.stage2_mmu.stage2_tlb.hits            0                       # Total TLB (inst and data) hits
system.cpu.dtb.stage2_mmu.stage2_tlb.misses            0                       # Total TLB (inst and data) misses
system.cpu.dtb.stage2_mmu.stage2_tlb.accesses            0                       # Total TLB (inst and data) accesses
system.cpu.dtb.stage2_mmu.stage2_tlb.walker.walks            0                       # Table walker walks requested
system.cpu.dtb.stage2_mmu.stage2_tlb.walker.requestOrigin_Requested::Data            0                       # Table walker requests started/completed, data/inst
system.cpu.dtb.stage2_mmu.stage2_tlb.walker.requestOrigin_Requested::Inst            0                       # Table walker requests started/completed, data/inst
system.cpu.dtb.stage2_mmu.stage2_tlb.walker.requestOrigin_Requested::total            0                       # Table walker requests started/completed, data/inst
system.cpu.dtb.stage2_mmu.stage2_tlb.walker.requestOrigin_Completed::Data            0                       # Table walker requests started/completed, data/inst
system.cpu.dtb.stage2_mmu.stage2_tlb.walker.requestOrigin_Completed::Inst            0                       # Table walker requests started/completed, data/inst
system.cpu.dtb.stage2_mmu.stage2_tlb.walker.requestOrigin_Completed::total            0                       # Table walker requests started/completed, data/inst
system.cpu.dtb.stage2_mmu.stage2_tlb.walker.requestOrigin::total            0                       # Table walker requests started/completed, data/inst
system.cpu.dtb.stage2_mmu.stage2_tlb.walker.power_state.pwrStateResidencyTicks::UNDEFINED     19894000                       # Cumulative time (in ticks) in various power states
system.cpu.dtb.walker.walks                         0                       # Table walker walks requested
system.cpu.dtb.walker.requestOrigin_Requested::Data            0                       # Table walker requests started/completed, data/inst
system.cpu.dtb.walker.requestOrigin_Requested::Inst            0                       # Table walker requests started/completed, data/inst
system.cpu.dtb.walker.requestOrigin_Requested::total            0                       # Table walker requests started/completed, data/inst
system.cpu.dtb.walker.requestOrigin_Completed::Data            0                       # Table walker requests started/completed, data/inst
system.cpu.dtb.walker.requestOrigin_Completed::Inst            0                       # Table walker requests started/completed, data/inst
system.cpu.dtb.walker.requestOrigin_Completed::total            0                       # Table walker requests started/completed, data/inst
system.cpu.dtb.walker.requestOrigin::total            0                       # Table walker requests started/completed, data/inst
system.cpu.dtb.walker.power_state.pwrStateResidencyTicks::UNDEFINED     19894000                       # Cumulative time (in ticks) in various power states
system.cpu.fetch.icacheStallCycles               8355                       # Number of cycles fetch is stalled on an Icache miss
system.cpu.fetch.insts                          12848                       # Number of instructions fetch has processed
system.cpu.fetch.branches                        2684                       # Number of branches that fetch encountered
system.cpu.fetch.predictedBranches                983                       # Number of branches that fetch has predicted taken
system.cpu.fetch.cycles                          4586                       # Number of cycles fetch has run and was not squashing or blocked
system.cpu.fetch.squashCycles                    1062                       # Number of cycles fetch has spent squashing
system.cpu.fetch.miscStallCycles                   12                       # Number of cycles fetch has spent waiting on interrupts,or bad addresses, or out of MSHRs
system.cpu.fetch.pendingTrapStallCycles           464                       # Number of stall cycles due to pending traps
system.cpu.fetch.icacheWaitRetryStallCycles           32                       # Number of stall cycles due to full MSHR
system.cpu.fetch.cacheLines                      1993                       # Number of cache lines fetched
system.cpu.fetch.icacheSquashes                   341                       # Number of outstanding Icache misses that were squashed
system.cpu.fetch.nisnDist::samples              13980                       # Number of instructions fetched each cycle (Total)
system.cpu.fetch.nisnDist::mean              1.062876                       # Number of instructions fetched each cycle (Total)
system.cpu.fetch.nisnDist::stdev             2.457096                       # Number of instructions fetched each cycle (Total)
system.cpu.fetch.nisnDist::underflows               0      0.00%      0.00% # Number of instructions fetched each cycle (Total)
system.cpu.fetch.nisnDist::0                    11319     80.97%     80.97% # Number of instructions fetched each cycle (Total)
system.cpu.fetch.nisnDist::1                      273      1.95%     82.92% # Number of instructions fetched each cycle (Total)
system.cpu.fetch.nisnDist::2                      208      1.49%     84.41% # Number of instructions fetched each cycle (Total)
system.cpu.fetch.nisnDist::3                      159      1.14%     85.54% # Number of instructions fetched each cycle (Total)
system.cpu.fetch.nisnDist::4                      287      2.05%     87.60% # Number of instructions fetched each cycle (Total)
system.cpu.fetch.nisnDist::5                      274      1.96%     89.56% # Number of instructions fetched each cycle (Total)
system.cpu.fetch.nisnDist::6                      173      1.24%     90.79% # Number of instructions fetched each cycle (Total)
system.cpu.fetch.nisnDist::7                      159      1.14%     91.93% # Number of instructions fetched each cycle (Total)
system.cpu.fetch.nisnDist::8                     1128      8.07%    100.00% # Number of instructions fetched each cycle (Total)
system.cpu.fetch.nisnDist::overflows                0      0.00%    100.00% # Number of instructions fetched each cycle (Total)
system.cpu.fetch.nisnDist::min_value                0                       # Number of instructions fetched each cycle (Total)
system.cpu.fetch.nisnDist::max_value                8                       # Number of instructions fetched each cycle (Total)
system.cpu.fetch.nisnDist::total                13980                       # Number of instructions fetched each cycle (Total)
system.cpu.fetch.branchRate                  0.067456                       # Number of branch fetches per cycle
system.cpu.fetch.rate                        0.322903                       # Number of inst fetches per cycle
system.cpu.icache.demand_hits::.cpu.inst         1537                       # number of demand (read+write) hits
system.cpu.icache.demand_hits::total             1537                       # number of demand (read+write) hits
system.cpu.icache.overall_hits::.cpu.inst         1537                       # number of overall hits
system.cpu.icache.overall_hits::total            1537                       # number of overall hits
system.cpu.icache.demand_misses::.cpu.inst          456                       # number of demand (read+write) misses
system.cpu.icache.demand_misses::total            456                       # number of demand (read+write) misses
system.cpu.icache.overall_misses::.cpu.inst          456                       # number of overall misses
system.cpu.icache.overall_misses::total           456                       # number of overall misses
system.cpu.icache.demand_miss_latency::.cpu.inst     32555000                       # number of demand (read+write) miss cycles
system.cpu.icache.demand_miss_latency::total     32555000                       # number of demand (read+write) miss cycles
system.cpu.icache.overall_miss_latency::.cpu.inst     32555000                       # number of overall miss cycles
system.cpu.icache.overall_miss_latency::total     32555000                       # number of overall miss cycles
system.cpu.icache.demand_accesses::.cpu.inst         1993                       # number of demand (read+write) accesses
system.cpu.icache.demand_accesses::total         1993                       # number of demand (read+write) accesses
system.cpu.icache.overall_accesses::.cpu.inst         1993                       # number of overall (read+write) accesses
system.cpu.icache.overall_accesses::total         1993                       # number of overall (read+write) accesses
system.cpu.icache.demand_miss_rate::.cpu.inst     0.228801                       # miss rate for demand accesses
system.cpu.icache.demand_miss_rate::total     0.228801                       # miss rate for demand accesses
system.cpu.icache.overall_miss_rate::.cpu.inst     0.228801                       # miss rate for overall accesses
system.cpu.icache.overall_miss_rate::total     0.228801                       # miss rate for overall accesses
system.cpu.icache.demand_avg_miss_latency::.cpu.inst 71392.543860                       # average overall miss latency
system.cpu.icache.demand_avg_miss_latency::total 71392.543860                       # average overall miss latency
system.cpu.icache.overall_avg_miss_latency::.cpu.inst 71392.543860                       # average overall miss latency
system.cpu.icache.overall_avg_miss_latency::total 71392.543860                       # average overall miss latency
system.cpu.icache.blocked_cycles::no_mshrs          564                       # number of cycles access was blocked
system.cpu.icache.blocked_cycles::no_targets            0                       # number of cycles access was blocked
system.cpu.icache.blocked::no_mshrs                 6                       # number of cycles access was blocked
system.cpu.icache.blocked::no_targets               0                       # number of cycles access was blocked
system.cpu.icache.avg_blocked_cycles::no_mshrs           94                       # average number of cycles each access was blocked
system.cpu.icache.avg_blocked_cycles::no_targets          nan                       # average number of cycles each access was blocked
system.cpu.icache.writebacks::.writebacks           26                       # number of writebacks
system.cpu.icache.writebacks::total                26                       # number of writebacks
system.cpu.icache.demand_mshr_hits::.cpu.inst          121                       # number of demand (read+write) MSHR hits
system.cpu.icache.demand_mshr_hits::total          121                       # number of demand (read+write) MSHR hits
system.cpu.icache.overall_mshr_hits::.cpu.inst          121                       # number of overall MSHR hits
system.cpu.icache.overall_mshr_hits::total          121                       # number of overall MSHR hits
system.cpu.icache.demand_mshr_misses::.cpu.inst          335                       # number of demand (read+write) MSHR misses
system.cpu.icache.demand_mshr_misses::total          335                       # number of demand (read+write) MSHR misses
system.cpu.icache.overall_mshr_misses::.cpu.inst          335                       # number of overall MSHR misses
system.cpu.icache.overall_mshr_misses::total          335                       # number of overall MSHR misses
system.cpu.icache.demand_mshr_miss_latency::.cpu.inst     25451500                       # number of demand (read+write) MSHR miss cycles
system.cpu.icache.demand_mshr_miss_latency::total     25451500                       # number of demand (read+write) MSHR miss cycles
system.cpu.icache.overall_mshr_miss_latency::.cpu.inst     25451500                       # number of overall MSHR miss cycles
system.cpu.icache.overall_mshr_miss_latency::total     25451500                       # number of overall MSHR miss cycles
system.cpu.icache.demand_mshr_miss_rate::.cpu.inst     0.168088                       # mshr miss rate for demand accesses
system.cpu.icache.demand_mshr_miss_rate::total     0.168088                       # mshr miss rate for demand accesses
system.cpu.icache.overall_mshr_miss_rate::.cpu.inst     0.168088                       # mshr miss rate for overall accesses
system.cpu.icache.overall_mshr_miss_rate::total     0.168088                       # mshr miss rate for overall accesses
system.cpu.icache.demand_avg_mshr_miss_latency::.cpu.inst 75974.626866                       # average overall mshr miss latency
system.cpu.icache.demand_avg_mshr_miss_latency::total 75974.626866                       # average overall mshr miss latency
system.cpu.icache.overall_avg_mshr_miss_latency::.cpu.inst 75974.626866                       # average overall mshr miss latency
system.cpu.icache.overall_avg_mshr_miss_latency::total 75974.626866                       # average overall mshr miss latency
system.cpu.icache.replacements                     26                       # number of replacements
system.cpu.icache.ReadReq_hits::.cpu.inst         1537                       # number of ReadReq hits
system.cpu.icache.ReadReq_hits::total            1537                       # number of ReadReq hits
system.cpu.icache.ReadReq_misses::.cpu.inst          456                       # number of ReadReq misses
system.cpu.icache.ReadReq_misses::total           456                       # number of ReadReq misses
system.cpu.icache.ReadReq_miss_latency::.cpu.inst     32555000                       # number of ReadReq miss cycles
system.cpu.icache.ReadReq_miss_latency::total     32555000                       # number of ReadReq miss cycles
system.cpu.icache.ReadReq_accesses::.cpu.inst         1993                       # number of ReadReq accesses(hits+misses)
system.cpu.icache.ReadReq_accesses::total         1993                       # number of ReadReq accesses(hits+misses)
system.cpu.icache.ReadReq_miss_rate::.cpu.inst     0.228801                       # miss rate for ReadReq accesses
system.cpu.icache.ReadReq_miss_rate::total     0.228801                       # miss rate for ReadReq accesses
system.cpu.icache.ReadReq_avg_miss_latency::.cpu.inst 71392.543860                       # average ReadReq miss latency
system.cpu.icache.ReadReq_avg_miss_latency::total 71392.543860                       # average ReadReq miss latency
system.cpu.icache.ReadReq_mshr_hits::.cpu.inst          121                       # number of ReadReq MSHR hits
system.cpu.icache.ReadReq_mshr_hits::total          121                       # number of ReadReq MSHR hits
system.cpu.icache.ReadReq_mshr_misses::.cpu.inst          335                       # number of ReadReq MSHR misses
system.cpu.icache.ReadReq_mshr_misses::total          335                       # number of ReadReq MSHR misses
system.cpu.icache.ReadReq_mshr_miss_latency::.cpu.inst     25451500                       # number of ReadReq MSHR miss cycles
system.cpu.icache.ReadReq_mshr_miss_latency::total     25451500                       # number of ReadReq MSHR miss cycles
system.cpu.icache.ReadReq_mshr_miss_rate::.cpu.inst     0.168088                       # mshr miss rate for ReadReq accesses
system.cpu.icache.ReadReq_mshr_miss_rate::total     0.168088                       # mshr miss rate for ReadReq accesses
system.cpu.icache.ReadReq_avg_mshr_miss_latency::.cpu.inst 75974.626866                       # average ReadReq mshr miss latency
system.cpu.icache.ReadReq_avg_mshr_miss_latency::total 75974.626866                       # average ReadReq mshr miss latency
system.cpu.icache.power_state.pwrStateResidencyTicks::UNDEFINED     19894000                       # Cumulative time (in ticks) in various power states
system.cpu.icache.tags.tagsinuse           165.269209                       # Cycle average of tags in use
system.cpu.icache.tags.total_refs                1871                       # Total number of references to valid blocks.
system.cpu.icache.tags.sampled_refs               334                       # Sample count of references to valid blocks.
system.cpu.icache.tags.avg_refs              5.601796                       # Average number of references to valid blocks.
system.cpu.icache.tags.warmup_cycle             87500                       # Cycle when the warmup percentage was hit.
system.cpu.icache.tags.occ_blocks::.cpu.inst   165.269209                       # Average occupied blocks per requestor
system.cpu.icache.tags.occ_percent::.cpu.inst     0.322791                       # Average percentage of cache occupancy
system.cpu.icache.tags.occ_percent::total     0.322791                       # Average percentage of cache occupancy
system.cpu.icache.tags.occ_task_id_blocks::1024          308                       # Occupied blocks per task id
system.cpu.icache.tags.age_task_id_blocks_1024::0          156                       # Occupied blocks per task id
system.cpu.icache.tags.age_task_id_blocks_1024::1          152                       # Occupied blocks per task id
system.cpu.icache.tags.occ_task_id_percent::1024     0.601562                       # Percentage of cache occupancy per task id
system.cpu.icache.tags.tag_accesses              4320                       # Number of tag accesses
system.cpu.icache.tags.data_accesses             4320                       # Number of data accesses
system.cpu.icache.tags.power_state.pwrStateResidencyTicks::UNDEFINED     19894000                       # Cumulative time (in ticks) in various power states
system.cpu.itb.instHits                             0                       # ITB inst hits
system.cpu.itb.instMisses                           0                       # ITB inst misses
system.cpu.itb.readHits                             0                       # DTB read hits
system.cpu.itb.readMisses                           0                       # DTB read misses
system.cpu.itb.writeHits                            0                       # DTB write hits
system.cpu.itb.writeMisses                          0                       # DTB write misses
system.cpu.itb.inserts                              0                       # Number of times an entry is inserted into the TLB
system.cpu.itb.flushTlb                             0                       # Number of times complete TLB was flushed
system.cpu.itb.flushTlbMva                          0                       # Number of times TLB was flushed by MVA
system.cpu.itb.flushTlbMvaAsid                      0                       # Number of times TLB was flushed by MVA & ASID
system.cpu.itb.flushTlbAsid                         0                       # Number of times TLB was flushed by ASID
system.cpu.itb.flushedEntries                       0                       # Number of entries that have been flushed from TLB
system.cpu.itb.alignFaults                          0                       # Number of TLB faults due to alignment restrictions
system.cpu.itb.prefetchFaults                       0                       # Number of TLB faults due to prefetch
system.cpu.itb.domainFaults                         0                       # Number of TLB faults due to domain restrictions
system.cpu.itb.permsFaults                          0                       # Number of TLB faults due to permissions restrictions
system.cpu.itb.readAccesses                         0                       # DTB read accesses
system.cpu.itb.writeAccesses                        0                       # DTB write accesses
system.cpu.itb.instAccesses                         0                       # ITB inst accesses
system.cpu.itb.hits                                 0                       # Total TLB (inst and data) hits
system.cpu.itb.misses                               0                       # Total TLB (inst and data) misses
system.cpu.itb.accesses                             0                       # Total TLB (inst and data) accesses
system.cpu.itb.stage2_mmu.stage2_tlb.instHits            0                       # ITB inst hits
system.cpu.itb.stage2_mmu.stage2_tlb.instMisses            0                       # ITB inst misses
system.cpu.itb.stage2_mmu.stage2_tlb.readHits            0                       # DTB read hits
system.cpu.itb.stage2_mmu.stage2_tlb.readMisses            0                       # DTB read misses
system.cpu.itb.stage2_mmu.stage2_tlb.writeHits            0                       # DTB write hits
system.cpu.itb.stage2_mmu.stage2_tlb.writeMisses            0                       # DTB write misses
system.cpu.itb.stage2_mmu.stage2_tlb.inserts            0                       # Number of times an entry is inserted into the TLB
system.cpu.itb.stage2_mmu.stage2_tlb.flushTlb            0                       # Number of times complete TLB was flushed
system.cpu.itb.stage2_mmu.stage2_tlb.flushTlbMva            0                       # Number of times TLB was flushed by MVA
system.cpu.itb.stage2_mmu.stage2_tlb.flushTlbMvaAsid            0                       # Number of times TLB was flushed by MVA & ASID
system.cpu.itb.stage2_mmu.stage2_tlb.flushTlbAsid            0                       # Number of times TLB was flushed by ASID
system.cpu.itb.stage2_mmu.stage2_tlb.flushedEntries            0                       # Number of entries that have been flushed from TLB
system.cpu.itb.stage2_mmu.stage2_tlb.alignFaults            0                       # Number of TLB faults due to alignment restrictions
system.cpu.itb.stage2_mmu.stage2_tlb.prefetchFaults            0                       # Number of TLB faults due to prefetch
[...]
system.mem_ctrls.dram.bw_read::.cpu.inst   1029456117                       # Total read bandwidth from this memory (bytes/s)
system.mem_ctrls.dram.bw_read::.cpu.data    450387051                       # Total read bandwidth from this memory (bytes/s)
system.mem_ctrls.dram.bw_read::total       1479843169                       # Total read bandwidth from this memory (bytes/s)
system.mem_ctrls.dram.bw_inst_read::.cpu.inst   1029456117                       # Instruction read bandwidth from this memory (bytes/s)
system.mem_ctrls.dram.bw_inst_read::total   1029456117                       # Instruction read bandwidth from this memory (bytes/s)
system.mem_ctrls.dram.bw_total::.cpu.inst   1029456117                       # Total bandwidth to/from this memory (bytes/s)
system.mem_ctrls.dram.bw_total::.cpu.data    450387051                       # Total bandwidth to/from this memory (bytes/s)
system.mem_ctrls.dram.bw_total::total      1479843169                       # Total bandwidth to/from this memory (bytes/s)
system.mem_ctrls.dram.readBursts                  460                       # Number of DRAM read bursts
system.mem_ctrls.dram.writeBursts                   0                       # Number of DRAM write bursts
system.mem_ctrls.dram.perBankRdBursts::0           60                       # Per bank write bursts
system.mem_ctrls.dram.perBankRdBursts::1            6                       # Per bank write bursts
system.mem_ctrls.dram.perBankRdBursts::2            9                       # Per bank write bursts
system.mem_ctrls.dram.perBankRdBursts::3           46                       # Per bank write bursts
system.mem_ctrls.dram.perBankRdBursts::4           10                       # Per bank write bursts
system.mem_ctrls.dram.perBankRdBursts::5           29                       # Per bank write bursts
system.mem_ctrls.dram.perBankRdBursts::6           48                       # Per bank write bursts
system.mem_ctrls.dram.perBankRdBursts::7           13                       # Per bank write bursts
system.mem_ctrls.dram.perBankRdBursts::8           49                       # Per bank write bursts
system.mem_ctrls.dram.perBankRdBursts::9           10                       # Per bank write bursts
system.mem_ctrls.dram.perBankRdBursts::10           17                       # Per bank write bursts
system.mem_ctrls.dram.perBankRdBursts::11           16                       # Per bank write bursts
system.mem_ctrls.dram.perBankRdBursts::12           67                       # Per bank write bursts
system.mem_ctrls.dram.perBankRdBursts::13           64                       # Per bank write bursts
system.mem_ctrls.dram.perBankRdBursts::14            8                       # Per bank write bursts
system.mem_ctrls.dram.perBankRdBursts::15            8                       # Per bank write bursts
system.mem_ctrls.dram.perBankWrBursts::0            0                       # Per bank write bursts
system.mem_ctrls.dram.perBankWrBursts::1            0                       # Per bank write bursts
system.mem_ctrls.dram.perBankWrBursts::2            0                       # Per bank write bursts
system.mem_ctrls.dram.perBankWrBursts::3            0                       # Per bank write bursts
system.mem_ctrls.dram.perBankWrBursts::4            0                       # Per bank write bursts
system.mem_ctrls.dram.perBankWrBursts::5            0                       # Per bank write bursts
system.mem_ctrls.dram.perBankWrBursts::6            0                       # Per bank write bursts
system.mem_ctrls.dram.perBankWrBursts::7            0                       # Per bank write bursts
system.mem_ctrls.dram.perBankWrBursts::8            0                       # Per bank write bursts
system.mem_ctrls.dram.perBankWrBursts::9            0                       # Per bank write bursts
system.mem_ctrls.dram.perBankWrBursts::10            0                       # Per bank write bursts
system.mem_ctrls.dram.perBankWrBursts::11            0                       # Per bank write bursts
system.mem_ctrls.dram.perBankWrBursts::12            0                       # Per bank write bursts
system.mem_ctrls.dram.perBankWrBursts::13            0                       # Per bank write bursts
system.mem_ctrls.dram.perBankWrBursts::14            0                       # Per bank write bursts
system.mem_ctrls.dram.perBankWrBursts::15            0                       # Per bank write bursts
system.mem_ctrls.dram.totQLat                 4531500                       # Total ticks spent queuing
system.mem_ctrls.dram.totBusLat               2300000                       # Total ticks spent in databus transfers
system.mem_ctrls.dram.totMemAccLat           13156500                       # Total ticks spent from burst creation until serviced by the DRAM
system.mem_ctrls.dram.avgQLat                 9851.09                       # Average queueing delay per DRAM burst
system.mem_ctrls.dram.avgBusLat               5000.00                       # Average bus latency per DRAM burst
system.mem_ctrls.dram.avgMemAccLat           28601.09                       # Average memory access latency per DRAM burst
system.mem_ctrls.dram.readRowHits                 365                       # Number of row buffer hits during reads
system.mem_ctrls.dram.writeRowHits                  0                       # Number of row buffer hits during writes
system.mem_ctrls.dram.readRowHitRate            79.35                       # Row buffer hit rate for reads
system.mem_ctrls.dram.writeRowHitRate             nan                       # Row buffer hit rate for writes
system.mem_ctrls.dram.bytesPerActivate::samples           85                       # Bytes accessed per row activation
system.mem_ctrls.dram.bytesPerActivate::mean   316.235294                       # Bytes accessed per row activation
system.mem_ctrls.dram.bytesPerActivate::gmean   200.168370                       # Bytes accessed per row activation
system.mem_ctrls.dram.bytesPerActivate::stdev   311.561568                       # Bytes accessed per row activation
system.mem_ctrls.dram.bytesPerActivate::0-127           25     29.41%     29.41% # Bytes accessed per row activation
system.mem_ctrls.dram.bytesPerActivate::128-255           23     27.06%     56.47% # Bytes accessed per row activation
system.mem_ctrls.dram.bytesPerActivate::256-383           12     14.12%     70.59% # Bytes accessed per row activation
system.mem_ctrls.dram.bytesPerActivate::384-511            4      4.71%     75.29% # Bytes accessed per row activation
system.mem_ctrls.dram.bytesPerActivate::512-639            7      8.24%     83.53% # Bytes accessed per row activation
system.mem_ctrls.dram.bytesPerActivate::640-767            4      4.71%     88.24% # Bytes accessed per row activation
system.mem_ctrls.dram.bytesPerActivate::1024-1151           10     11.76%    100.00% # Bytes accessed per row activation
system.mem_ctrls.dram.bytesPerActivate::total           85                       # Bytes accessed per row activation
system.mem_ctrls.dram.bytesRead                 29440                       # Total number of bytes read from DRAM
system.mem_ctrls.dram.bytesWritten                  0                       # Total number of bytes written to DRAM
system.mem_ctrls.dram.avgRdBW             1479.843169                       # Average DRAM read bandwidth in MiBytes/s
system.mem_ctrls.dram.avgWrBW                       0                       # Average DRAM write bandwidth in MiBytes/s
system.mem_ctrls.dram.peakBW                 12800.00                       # Theoretical peak bandwidth in MiByte/s
system.mem_ctrls.dram.busUtil                   11.56                       # Data bus utilization in percentage
system.mem_ctrls.dram.busUtilRead               11.56                       # Data bus utilization in percentage for reads
system.mem_ctrls.dram.busUtilWrite               0.00                       # Data bus utilization in percentage for writes
system.mem_ctrls.dram.pageHitRate               79.35                       # Row buffer hit rate, read and write combined
system.mem_ctrls.dram.power_state.pwrStateResidencyTicks::UNDEFINED     19894000                       # Cumulative time (in ticks) in various power states
system.mem_ctrls.dram.rank0.actEnergy          271320                       # Energy for activate commands per rank (pJ)
system.mem_ctrls.dram.rank0.preEnergy          121440                       # Energy for precharge commands per rank (pJ)
system.mem_ctrls.dram.rank0.readEnergy        1577940                       # Energy for read commands per rank (pJ)
system.mem_ctrls.dram.rank0.writeEnergy             0                       # Energy for write commands per rank (pJ)
system.mem_ctrls.dram.rank0.refreshEnergy 1229280.000000                       # Energy for refresh commands per rank (pJ)
system.mem_ctrls.dram.rank0.actBackEnergy      8863500                       # Energy for active background per rank (pJ)
system.mem_ctrls.dram.rank0.preBackEnergy       175680                       # Energy for precharge background per rank (pJ)
system.mem_ctrls.dram.rank0.actPowerDownEnergy            0                       # Energy for active power-down per rank (pJ)
system.mem_ctrls.dram.rank0.prePowerDownEnergy            0                       # Energy for precharge power-down per rank (pJ)
system.mem_ctrls.dram.rank0.selfRefreshEnergy            0                       # Energy for self refresh per rank (pJ)
system.mem_ctrls.dram.rank0.totalEnergy      12239160                       # Total energy per rank (pJ)
system.mem_ctrls.dram.rank0.averagePower   615.218659                       # Core power per rank (mW)
system.mem_ctrls.dram.rank0.totalIdleTime            0                       # Total Idle time Per DRAM Rank
system.mem_ctrls.dram.rank0.pwrStateTime::IDLE       401000                       # Time in different power states
system.mem_ctrls.dram.rank0.pwrStateTime::REF       520000                       # Time in different power states
system.mem_ctrls.dram.rank0.pwrStateTime::SREF            0                       # Time in different power states
system.mem_ctrls.dram.rank0.pwrStateTime::PRE_PDN            0                       # Time in different power states
system.mem_ctrls.dram.rank0.pwrStateTime::ACT     18973000                       # Time in different power states
system.mem_ctrls.dram.rank0.pwrStateTime::ACT_PDN            0                       # Time in different power states
system.mem_ctrls.dram.rank1.actEnergy          406980                       # Energy for activate commands per rank (pJ)
system.mem_ctrls.dram.rank1.preEnergy          201135                       # Energy for precharge commands per rank (pJ)
system.mem_ctrls.dram.rank1.readEnergy        1706460                       # Energy for read commands per rank (pJ)
system.mem_ctrls.dram.rank1.writeEnergy             0                       # Energy for write commands per rank (pJ)
system.mem_ctrls.dram.rank1.refreshEnergy 1229280.000000                       # Energy for refresh commands per rank (pJ)
system.mem_ctrls.dram.rank1.actBackEnergy      8999730                       # Energy for active background per rank (pJ)
system.mem_ctrls.dram.rank1.preBackEnergy        60960                       # Energy for precharge background per rank (pJ)
system.mem_ctrls.dram.rank1.actPowerDownEnergy            0                       # Energy for active power-down per rank (pJ)
system.mem_ctrls.dram.rank1.prePowerDownEnergy            0                       # Energy for precharge power-down per rank (pJ)
system.mem_ctrls.dram.rank1.selfRefreshEnergy            0                       # Energy for self refresh per rank (pJ)
system.mem_ctrls.dram.rank1.totalEnergy      12604545                       # Total energy per rank (pJ)
system.mem_ctrls.dram.rank1.averagePower   633.585252                       # Core power per rank (mW)
system.mem_ctrls.dram.rank1.totalIdleTime            0                       # Total Idle time Per DRAM Rank
system.mem_ctrls.dram.rank1.pwrStateTime::IDLE       103000                       # Time in different power states
system.mem_ctrls.dram.rank1.pwrStateTime::REF       520000                       # Time in different power states
system.mem_ctrls.dram.rank1.pwrStateTime::SREF            0                       # Time in different power states
system.mem_ctrls.dram.rank1.pwrStateTime::PRE_PDN            0                       # Time in different power states
system.mem_ctrls.dram.rank1.pwrStateTime::ACT     19271000                       # Time in different power states
system.mem_ctrls.dram.rank1.pwrStateTime::ACT_PDN            0                       # Time in different power states
system.mem_ctrls.power_state.pwrStateResidencyTicks::UNDEFINED     19894000                       # Cumulative time (in ticks) in various power states
system.membus.trans_dist::ReadResp                411                       # Transaction distribution
system.membus.trans_dist::CleanEvict                6                       # Transaction distribution
system.membus.trans_dist::ReadExReq                49                       # Transaction distribution
system.membus.trans_dist::ReadExResp               49                       # Transaction distribution
system.membus.trans_dist::ReadSharedReq           411                       # Transaction distribution
system.membus.pkt_count_system.l2.mem_side_port::system.mem_ctrls.port          926                       # Packet count per connected requestor and responder (bytes)
system.membus.pkt_count::total                    926                       # Packet count per connected requestor and responder (bytes)
system.membus.pkt_size_system.l2.mem_side_port::system.mem_ctrls.port        29440                       # Cumulative packet size per connected requestor and responder (bytes)
system.membus.pkt_size::total                   29440                       # Cumulative packet size per connected requestor and responder (bytes)
system.membus.snoops                                0                       # Total snoops (count)
system.membus.snoopTraffic                          0                       # Total snoop traffic (bytes)
system.membus.snoop_fanout::samples               460                       # Request fanout histogram
system.membus.snoop_fanout::mean                    0                       # Request fanout histogram
system.membus.snoop_fanout::stdev                   0                       # Request fanout histogram
system.membus.snoop_fanout::underflows              0      0.00%      0.00% # Request fanout histogram
system.membus.snoop_fanout::0                     460    100.00%    100.00% # Request fanout histogram
system.membus.snoop_fanout::1                       0      0.00%    100.00% # Request fanout histogram
system.membus.snoop_fanout::overflows               0      0.00%    100.00% # Request fanout histogram
system.membus.snoop_fanout::min_value               0                       # Request fanout histogram
system.membus.snoop_fanout::max_value               0                       # Request fanout histogram
system.membus.snoop_fanout::total                 460                       # Request fanout histogram
system.membus.power_state.pwrStateResidencyTicks::UNDEFINED     19894000                       # Cumulative time (in ticks) in various power states
system.membus.reqLayer0.occupancy              576000                       # Layer occupancy (ticks)
system.membus.reqLayer0.utilization               2.9                       # Layer utilization (%)
system.membus.respLayer1.occupancy            2438000                       # Layer occupancy (ticks)
system.membus.respLayer1.utilization             12.3                       # Layer utilization (%)
system.tol2bus.trans_dist::ReadResp               448                       # Transaction distribution
system.tol2bus.trans_dist::WritebackDirty            1                       # Transaction distribution
system.tol2bus.trans_dist::WritebackClean           26                       # Transaction distribution
system.tol2bus.trans_dist::CleanEvict             263                       # Transaction distribution
system.tol2bus.trans_dist::ReadExReq               49                       # Transaction distribution
system.tol2bus.trans_dist::ReadExResp              49                       # Transaction distribution
system.tol2bus.trans_dist::ReadCleanReq           335                       # Transaction distribution
system.tol2bus.trans_dist::ReadSharedReq          114                       # Transaction distribution
system.tol2bus.pkt_count_system.cpu.icache.mem_side_port::system.l2.cpu_side_port          695                       # Packet count per connected requestor and responder (bytes)
system.tol2bus.pkt_count_system.cpu.dcache.mem_side_port::system.l2.cpu_side_port          333                       # Packet count per connected requestor and responder (bytes)
system.tol2bus.pkt_count::total                  1028                       # Packet count per connected requestor and responder (bytes)
system.tol2bus.pkt_size_system.cpu.icache.mem_side_port::system.l2.cpu_side_port        23040                       # Cumulative packet size per connected requestor and responder (bytes)
system.tol2bus.pkt_size_system.cpu.dcache.mem_side_port::system.l2.cpu_side_port        10496                       # Cumulative packet size per connected requestor and responder (bytes)
system.tol2bus.pkt_size::total                  33536                       # Cumulative packet size per connected requestor and responder (bytes)
system.tol2bus.snoops                             257                       # Total snoops (count)
system.tol2bus.snoopTraffic                         0                       # Total snoop traffic (bytes)
system.tol2bus.snoop_fanout::samples              755                       # Request fanout histogram
system.tol2bus.snoop_fanout::mean            0.414570                       # Request fanout histogram
system.tol2bus.snoop_fanout::stdev           0.536765                       # Request fanout histogram
system.tol2bus.snoop_fanout::underflows             0      0.00%      0.00% # Request fanout histogram
system.tol2bus.snoop_fanout::0                    459     60.79%     60.79% # Request fanout histogram
system.tol2bus.snoop_fanout::1                    279     36.95%     97.75% # Request fanout histogram
system.tol2bus.snoop_fanout::2                     17      2.25%    100.00% # Request fanout histogram
system.tol2bus.snoop_fanout::overflows              0      0.00%    100.00% # Request fanout histogram
system.tol2bus.snoop_fanout::min_value              0                       # Request fanout histogram
system.tol2bus.snoop_fanout::max_value              2                       # Request fanout histogram
system.tol2bus.snoop_fanout::total                755                       # Request fanout histogram
system.tol2bus.power_state.pwrStateResidencyTicks::UNDEFINED     19894000                       # Cumulative time (in ticks) in various power states
system.tol2bus.reqLayer0.occupancy             292500                       # Layer occupancy (ticks)
system.tol2bus.reqLayer0.utilization              1.5                       # Layer utilization (%)
system.tol2bus.respLayer0.occupancy            501000                       # Layer occupancy (ticks)
system.tol2bus.respLayer0.utilization             2.5                       # Layer utilization (%)
system.tol2bus.respLayer1.occupancy            247993                       # Layer occupancy (ticks)
system.tol2bus.respLayer1.utilization             1.2                       # Layer utilization (%)
system.voltage_domain.voltage                       1                       # Voltage in Volts

---------- End Simulation Statistics   ----------
